%chk=E.chk
%mem=200GB
%nprocshared=48
#p opt freq scrf=(iefpcm,solvent=toluene) def2svp em=gd3bj pbe1pbe

Title Card Required

1 1
 C                  4.23156500   -4.11419800   -0.12107800
 C                  4.42415100   -2.92851600   -0.83317800
 C                  3.96505100   -1.71866100   -0.31933300
 C                  3.30327000   -1.69199100    0.91948400
 C                  3.13473100   -2.87464000    1.63633500
 C                  3.59200200   -4.08708500    1.11589800
 C                  4.13895100   -0.39431100   -1.02470700
 C                  2.84589700   -0.34466000    1.42955700
 C                  3.97833000    0.63486200    1.23507400
 C                  4.62385300    0.61592600   -0.01146200
 C                  5.66365700    1.50617300   -0.26366600
 H                  6.16727600    1.49002000   -1.23378000
 C                  6.06425100    2.41451400    0.71763500
 C                  5.42510700    2.43043800    1.95501500
 C                  4.38222600    1.53911200    2.21275900
 H                  4.59872000   -5.05901700   -0.52803500
 H                  4.94516400   -2.94627800   -1.79419800
 H                  2.66171800   -2.84375300    2.62131100
 H                  3.46230500   -5.00941100    1.68670800
 H                  6.88297100    3.10845800    0.51460600
 H                  5.74111700    3.13677800    2.72598100
 H                  3.87934700    1.54918100    3.18354300
 H                  2.61220200   -0.43070900    2.49857800
 H                  4.89053000   -0.49923200   -1.81787400
 C                  1.50559100    0.18239600    0.72210900
 C                  2.78162300    0.06918400   -1.74693900
 H                  0.76916000    0.33043900    1.52105500
 H                  2.98965600    0.10677300   -2.82374300
 C                  0.98238900   -0.83579900   -0.26485300
 C                  1.68945700   -0.93787600   -1.50134000
 C                  1.71335500    1.48584900   -0.01085000
 C                  2.32525700    1.42464100   -1.27234500
 C                 -0.03979800   -1.79384900    0.02397800
 C                 -0.20723500   -2.92241400   -0.83866600
 H                 -0.92154500   -3.69765900   -0.55606500
 C                  0.47580700   -2.98754300   -2.03147100
 H                  0.30728600   -3.82040300   -2.71625400
 C                  1.39260700   -1.96783900   -2.38187200
 H                  1.91600100   -2.02032700   -3.33948300
 C                  1.35358400    2.71967900    0.52346300
 H                  0.90252000    2.76877700    1.51862700
 C                  2.53246400    2.59305400   -2.00010700
 H                  3.00137700    2.54135600   -2.98610200
 C                  1.58207900    3.89102300   -0.19972200
 H                  1.30382100    4.85754200    0.22535300
 C                  2.15828200    3.82662200   -1.46587400
 H                  2.32588400    4.74114400   -2.03868500
 C                 -0.72882600   -1.76482300    1.34655400
 C                 -1.71946100   -0.80848100    1.62474200
 C                 -0.35059900   -2.66970600    2.34166400
 C                 -2.26382000   -0.72000400    2.91239700
 C                 -0.91098100   -2.59043100    3.61433700
 H                  0.40242400   -3.42669800    2.11561000
 C                 -1.85190800   -1.60391400    3.90589300
 H                 -3.02362300    0.02723200    3.14368100
 H                 -0.60339100   -3.29915300    4.38618800
 H                 -2.28210500   -1.53125400    4.90670500
 P                 -2.33329300    0.20115200    0.23635300
 C                 -2.34310300    1.97683900    0.76715000
 C                 -2.03657800    2.94827800   -0.37865300
 C                 -3.62086700    2.39511200    1.50955000
 H                 -1.49603700    2.00360800    1.47736800
 C                 -1.95884700    4.38295700    0.12920500
 H                 -2.81898900    2.86383200   -1.14910700
 H                 -1.09144400    2.67024300   -0.86624800
 C                 -3.52349700    3.83821300    1.99842700
 H                 -4.48102600    2.30448500    0.82549200
 H                 -3.82097300    1.73761500    2.36742900
 C                 -3.22710100    4.80056500    0.85840200
 H                 -1.75220300    5.05220800   -0.72018400
 H                 -1.09870600    4.47837900    0.81454700
 H                 -4.46284400    4.10608100    2.50693800
 H                 -2.72525500    3.91018000    2.75830600
 H                 -3.13314700    5.82881500    1.24073700
 H                 -4.07552700    4.80522600    0.15135300
 C                 -3.99555700   -0.46115200   -0.22947800
 C                 -3.85061300   -1.78343000   -0.99532100
 C                 -4.95374500   -0.64731300    0.95497700
 H                 -4.38699100    0.30552600   -0.92208600
 C                 -5.20892700   -2.29928600   -1.45978700
 H                 -3.37510800   -2.52944400   -0.33304400
 H                 -3.19230500   -1.64746500   -1.86454000
 C                 -6.31453300   -1.14317700    0.46958300
 H                 -4.52804200   -1.39431700    1.64549700
 H                 -5.08295300    0.28122300    1.52396700
 C                 -6.19133600   -2.44629800   -0.30635500
 H                 -5.07247900   -3.25948100   -1.98133300
 H                 -5.61692900   -1.59551100   -2.20628900
 H                 -6.98065300   -1.26776400    1.33763800
 H                 -6.77606400   -0.37058200   -0.17011000
 H                 -7.17665000   -2.76566200   -0.67979900
 H                 -5.84100500   -3.24252100    0.37482500
 Pd                -0.88185000   -0.24842500   -1.37547800
 C                 -1.45883917   -0.65838796   -3.67507635
 C                 -0.58583216    0.33488137   -3.77165807
 H                 -2.49983517   -0.50520723   -3.36035050
 H                 -1.19954049   -1.70090528   -3.90333862
 H                  0.45515877    0.18170334   -4.08640203
 C                 -0.94942293    1.79671306   -3.45158016
 H                 -0.21000750    2.56454124   -3.54434177
 H                 -1.94146310    2.04457313   -3.13642674



